.subckt subtract 1 2 3
B1 3 0 V=V(1)-V(2)
.end subtract
