.subckt triangle 1
V1 1 0 PULSE({Vc} 0 0 {Tc/2} {Tc/2} 0 {Tc})
.ends triangle
