.subckt compare 1 2 3
B1 3 0 V=if(V(1)>V(2), {Von}, 0)
.ends compare