.subckt gain 1 2
B1 2 0 V={K*V(1)}
.end gain
