Version 4
SHEET 1 2636 1284
WIRE 272 -176 -64 -176
WIRE 608 -176 272 -176
WIRE 928 -176 608 -176
WIRE 272 -128 272 -176
WIRE 400 -128 272 -128
WIRE 608 -128 608 -176
WIRE 736 -128 608 -128
WIRE 928 -128 928 -176
WIRE 1056 -128 928 -128
WIRE 272 -96 272 -128
WIRE 608 -96 608 -128
WIRE 928 -96 928 -128
WIRE -560 -80 -576 -80
WIRE -400 -80 -560 -80
WIRE 400 -80 400 -128
WIRE 736 -80 736 -128
WIRE 1056 -80 1056 -128
WIRE -688 -64 -944 -64
WIRE -560 -16 -560 -80
WIRE -528 -16 -560 -16
WIRE -400 -16 -464 -16
WIRE 272 16 272 -16
WIRE 400 16 400 -16
WIRE 400 16 272 16
WIRE 608 16 608 -16
WIRE 736 16 736 -16
WIRE 736 16 608 16
WIRE 928 16 928 -16
WIRE 1056 16 1056 -16
WIRE 1056 16 928 16
WIRE 272 64 272 16
WIRE 1184 64 272 64
WIRE 1312 64 1264 64
WIRE 1440 64 1392 64
WIRE 1984 64 1440 64
WIRE 2064 64 1984 64
WIRE 2192 64 2144 64
WIRE -560 128 -576 128
WIRE -400 128 -560 128
WIRE -64 128 -64 -176
WIRE -944 144 -944 -64
WIRE -688 144 -944 144
WIRE 608 144 608 16
WIRE 1184 144 608 144
WIRE 1312 144 1264 144
WIRE 1536 144 1392 144
WIRE 1904 144 1536 144
WIRE 2064 144 1904 144
WIRE 2192 144 2192 64
WIRE 2192 144 2144 144
WIRE 2320 144 2192 144
WIRE -560 176 -560 128
WIRE -528 176 -560 176
WIRE -400 176 -464 176
WIRE 2320 192 2320 144
WIRE 928 224 928 16
WIRE 1184 224 928 224
WIRE 1312 224 1264 224
WIRE 1632 224 1392 224
WIRE 1808 224 1632 224
WIRE 2064 224 1808 224
WIRE 2192 224 2192 144
WIRE 2192 224 2144 224
WIRE -944 272 -944 144
WIRE -944 272 -1040 272
WIRE 1440 272 1440 64
WIRE 1536 272 1536 144
WIRE 1632 272 1632 224
WIRE 272 288 272 64
WIRE 400 288 272 288
WIRE 608 288 608 144
WIRE 736 288 608 288
WIRE 928 288 928 224
WIRE 1056 288 928 288
WIRE 272 320 272 288
WIRE 608 320 608 288
WIRE 928 320 928 288
WIRE -560 336 -576 336
WIRE -400 336 -560 336
WIRE 400 336 400 288
WIRE 736 336 736 288
WIRE 1056 336 1056 288
WIRE -944 352 -944 272
WIRE -688 352 -944 352
WIRE -560 384 -560 336
WIRE -528 384 -560 384
WIRE -400 384 -464 384
WIRE 1440 416 1440 336
WIRE 1536 416 1536 336
WIRE 1536 416 1440 416
WIRE 1632 416 1632 336
WIRE 1632 416 1536 416
WIRE 272 432 272 400
WIRE 400 432 400 400
WIRE 400 432 272 432
WIRE 608 432 608 400
WIRE 736 432 736 400
WIRE 736 432 608 432
WIRE 928 432 928 400
WIRE 1056 432 1056 400
WIRE 1056 432 928 432
WIRE -64 480 -64 208
WIRE 272 480 272 432
WIRE 272 480 -64 480
WIRE 608 480 608 432
WIRE 608 480 272 480
WIRE 928 480 928 432
WIRE 928 480 608 480
WIRE 1536 480 1536 416
WIRE -64 544 -64 480
WIRE 912 688 656 688
WIRE 1056 688 1024 688
WIRE 1216 688 1120 688
WIRE 1024 720 1024 688
WIRE 1024 720 976 720
WIRE 1216 720 1216 688
WIRE 1264 720 1216 720
WIRE 1472 736 1328 736
WIRE 912 752 864 752
WIRE 1152 752 1136 752
WIRE 1264 752 1216 752
WIRE 1616 768 1536 768
WIRE 656 784 656 688
WIRE 1024 784 1024 720
WIRE 1056 784 1024 784
WIRE 1136 784 1136 752
WIRE 1136 784 1120 784
WIRE 1712 784 1680 784
WIRE 1472 800 1392 800
WIRE 1616 800 1568 800
WIRE 2032 800 1968 800
WIRE 2208 800 2096 800
WIRE 864 864 864 752
WIRE 864 864 816 864
WIRE 1264 864 864 864
WIRE 1408 864 1328 864
WIRE 1968 864 1968 800
WIRE 1968 864 1888 864
WIRE -320 880 -320 848
WIRE -176 880 -176 848
WIRE -32 880 -32 848
WIRE 1712 880 1712 784
WIRE 1760 880 1712 880
WIRE 656 896 656 864
WIRE 1568 896 1568 800
WIRE 2032 896 1888 896
WIRE 2208 896 2096 896
WIRE 1760 912 1712 912
WIRE 1968 928 1888 928
WIRE 1760 944 1728 944
WIRE 864 960 816 960
WIRE 1264 960 864 960
WIRE 1392 960 1392 800
WIRE 1392 960 1328 960
WIRE 1968 992 1968 928
WIRE 2032 992 1968 992
WIRE 2208 992 2096 992
WIRE 1056 1040 1008 1040
WIRE 1232 1040 1120 1040
WIRE 912 1056 656 1056
WIRE 1728 1056 1728 944
WIRE 1792 1056 1728 1056
WIRE 1232 1072 1232 1040
WIRE 1264 1072 1232 1072
WIRE 1568 1072 1568 1024
WIRE 1616 1072 1568 1072
WIRE 1008 1088 1008 1040
WIRE 1008 1088 976 1088
WIRE 1472 1088 1328 1088
WIRE 1712 1088 1712 912
WIRE 1712 1088 1680 1088
WIRE 1152 1104 1136 1104
WIRE 1264 1104 1216 1104
WIRE 1616 1104 1536 1104
WIRE 656 1120 656 1056
WIRE 864 1120 864 960
WIRE 912 1120 864 1120
WIRE 1408 1120 1408 864
WIRE 1472 1120 1408 1120
WIRE 1008 1136 1008 1088
WIRE 1056 1136 1008 1136
WIRE 1136 1136 1136 1104
WIRE 1136 1136 1120 1136
WIRE 656 1232 656 1200
FLAG 224 -80 0
FLAG 224 336 0
FLAG 560 -80 0
FLAG 880 -80 0
FLAG 880 336 0
FLAG 560 336 0
FLAG -688 -96 VoA
IOPIN -688 -96 In
FLAG -688 112 VoB
IOPIN -688 112 In
FLAG -688 320 VoC
IOPIN -688 320 In
FLAG -400 -80 Vs1
IOPIN -400 -80 Out
FLAG -400 128 Vs3
IOPIN -400 128 Out
FLAG -400 336 Vs5
IOPIN -400 336 Out
FLAG -400 -16 Vs2
IOPIN -400 -16 Out
FLAG -400 176 Vs4
IOPIN -400 176 Out
FLAG -400 384 Vs6
IOPIN -400 384 Out
FLAG 224 -32 Vs1
IOPIN 224 -32 In
FLAG 560 -32 Vs3
IOPIN 560 -32 In
FLAG 560 384 Vs4
IOPIN 560 384 In
FLAG 880 -32 Vs5
IOPIN 880 -32 In
FLAG 880 384 Vs6
IOPIN 880 384 In
FLAG 224 384 Vs2
IOPIN 224 384 In
FLAG -64 544 0
FLAG 2320 192 0
FLAG -864 768 angle
IOPIN -864 768 Out
FLAG -640 736 Ia
IOPIN -640 736 In
FLAG -640 768 Ib
IOPIN -640 768 In
FLAG -640 800 Ic
IOPIN -640 800 In
FLAG -992 736 VaGrid
IOPIN -992 736 In
FLAG -992 768 VbGrid
IOPIN -992 768 In
FLAG -992 800 VcGrid
IOPIN -992 800 In
FLAG -576 832 angle
IOPIN -576 832 In
FLAG -512 736 Id
IOPIN -512 736 Out
FLAG -512 768 Iq
IOPIN -512 768 Out
FLAG -512 800 I0
IOPIN -512 800 Out
FLAG 1536 480 0
FLAG -320 880 0
FLAG -320 768 Ia
IOPIN -320 768 Out
FLAG -176 880 0
FLAG -176 768 Ib
IOPIN -176 768 Out
FLAG -32 880 0
FLAG -32 768 Ic
IOPIN -32 768 Out
FLAG 1984 64 VaGrid
IOPIN 1984 64 Out
FLAG 1904 144 VbGrid
IOPIN 1904 144 Out
FLAG 1808 224 VcGrid
IOPIN 1808 224 Out
FLAG 656 896 0
FLAG 656 1232 0
FLAG -992 896 VaGrid
IOPIN -992 896 In
FLAG -992 928 VbGrid
IOPIN -992 928 In
FLAG -992 960 VcGrid
IOPIN -992 960 In
FLAG -928 992 angle
IOPIN -928 992 In
FLAG -864 896 Vd
IOPIN -864 896 Out
FLAG -864 928 Vq
IOPIN -864 928 Out
FLAG -864 960 V0
IOPIN -864 960 Out
FLAG 1568 1024 Vq
IOPIN 1568 1024 In
FLAG 1568 896 Vd
IOPIN 1568 896 In
FLAG 1792 1056 angle
IOPIN 1792 1056 In
FLAG 2208 800 VoA
IOPIN 2208 800 Out
FLAG 2208 896 VoB
IOPIN 2208 896 Out
FLAG 2208 992 VoC
IOPIN 2208 992 Out
FLAG 816 864 Id
IOPIN 816 864 In
FLAG 816 960 Iq
IOPIN 816 960 In
SYMBOL voltage -64 112 R0
WINDOW 123 0 0 Left 0
WINDOW 39 0 0 Left 0
SYMATTR InstName V1
SYMATTR Value {Vdc}
SYMBOL sw 272 -112 R0
SYMATTR InstName S1
SYMATTR Value S1
SYMBOL sw 272 304 R0
SYMATTR InstName S2
SYMATTR Value S2
SYMBOL sw 608 -112 R0
SYMATTR InstName S3
SYMATTR Value S3
SYMBOL sw 608 304 R0
SYMATTR InstName S4
SYMATTR Value S4
SYMBOL sw 928 -112 R0
SYMATTR InstName S5
SYMATTR Value S5
SYMBOL sw 928 304 R0
SYMATTR InstName S6
SYMATTR Value S6
SYMBOL diode 416 -16 R180
WINDOW 0 24 64 Left 2
WINDOW 3 24 0 Left 2
SYMATTR InstName D1
SYMBOL diode 416 400 R180
WINDOW 0 24 64 Left 2
WINDOW 3 24 0 Left 2
SYMATTR InstName D2
SYMBOL diode 752 -16 R180
WINDOW 0 24 64 Left 2
WINDOW 3 24 0 Left 2
SYMATTR InstName D3
SYMBOL diode 752 400 R180
WINDOW 0 24 64 Left 2
WINDOW 3 24 0 Left 2
SYMATTR InstName D4
SYMBOL diode 1072 -16 R180
WINDOW 0 24 64 Left 2
WINDOW 3 24 0 Left 2
SYMATTR InstName D5
SYMBOL diode 1072 400 R180
WINDOW 0 24 64 Left 2
WINDOW 3 24 0 Left 2
SYMATTR InstName D6
SYMBOL carriertriangle -1088 272 R0
SYMATTR Value Vc={Vcarrier}
SYMATTR Value2 Tc={T}
SYMATTR InstName U2
SYMBOL compare -640 -80 R0
SYMATTR InstName U3
SYMATTR Value Von=1
SYMBOL compare -640 128 R0
SYMATTR InstName U4
SYMATTR Value Von=1
SYMBOL compare -640 336 R0
SYMATTR InstName U5
SYMATTR Value Von=1
SYMBOL Digital\\inv -528 -80 R0
SYMATTR InstName A1
SYMBOL Digital\\inv -528 112 R0
SYMATTR InstName A2
SYMBOL Digital\\inv -528 320 R0
SYMATTR InstName A3
SYMBOL voltage 2160 64 R90
WINDOW 0 -32 56 VBottom 2
WINDOW 3 -153 -151 VTop 2
WINDOW 123 0 0 Left 0
WINDOW 39 0 0 Left 0
SYMATTR InstName V2
SYMATTR Value SINE(0 {V} 50)
SYMBOL voltage 2160 144 R90
WINDOW 0 -32 56 VBottom 2
WINDOW 3 -199 -200 VTop 2
WINDOW 123 0 0 Left 0
WINDOW 39 0 0 Left 0
SYMATTR InstName V3
SYMATTR Value SINE(0 {V} 50 0 0 -120)
SYMBOL voltage 2160 224 R90
WINDOW 0 -32 56 VBottom 2
WINDOW 3 -248 -198 VTop 2
WINDOW 123 0 0 Left 0
WINDOW 39 0 0 Left 0
SYMATTR InstName V4
SYMATTR Value SINE(0 {V} 50 0 0 120)
SYMBOL PLL -928 768 R0
SYMATTR InstName U6
SYMBOL park -576 768 R0
SYMATTR InstName U8
SYMBOL ind 1296 80 R270
WINDOW 0 32 56 VTop 2
WINDOW 3 161 58 VBottom 2
SYMATTR InstName L4
SYMATTR Value {Lf}
SYMBOL ind 1296 160 R270
WINDOW 0 32 56 VTop 2
WINDOW 3 240 116 VBottom 2
SYMATTR InstName L5
SYMATTR Value {Lf}
SYMBOL ind 1296 240 R270
WINDOW 0 32 56 VTop 2
WINDOW 3 321 172 VBottom 2
SYMATTR InstName L6
SYMATTR Value {Lf}
SYMBOL cap 1424 272 R0
SYMATTR InstName C1
SYMATTR Value {Cf}
SYMBOL cap 1520 272 R0
SYMATTR InstName C2
SYMATTR Value {Cf}
SYMBOL cap 1616 272 R0
SYMATTR InstName C3
SYMATTR Value {Cf}
SYMBOL res 1280 48 R90
WINDOW 0 0 56 VBottom 2
WINDOW 3 32 56 VTop 2
SYMATTR InstName R1
SYMATTR Value 5
SYMBOL res 1280 128 R90
WINDOW 0 0 56 VBottom 2
WINDOW 3 32 56 VTop 2
SYMATTR InstName R2
SYMATTR Value 5
SYMBOL res 1280 208 R90
WINDOW 0 0 56 VBottom 2
WINDOW 3 32 56 VTop 2
SYMATTR InstName R3
SYMATTR Value 5
SYMBOL bv -320 752 R0
SYMATTR InstName B1
SYMATTR Value V=I(L4)
SYMBOL bv -176 752 R0
SYMATTR InstName B2
SYMATTR Value V=I(L5)
SYMBOL bv -32 752 R0
SYMATTR InstName B3
SYMATTR Value V=I(L6)
SYMBOL voltage 656 768 R0
WINDOW 123 0 0 Left 0
WINDOW 39 0 0 Left 0
SYMATTR InstName V5
SYMATTR Value 3k
SYMBOL voltage 656 1104 R0
WINDOW 123 0 0 Left 0
WINDOW 39 0 0 Left 0
SYMATTR InstName V6
SYMATTR Value 0
SYMBOL gain 1280 864 R0
WINDOW 3 0 0 Left 0
SYMATTR Value K=0.001
SYMATTR InstName U10
SYMBOL gain 1280 960 R0
WINDOW 3 0 0 Left 0
SYMATTR Value K=0.001
SYMATTR InstName U11
SYMBOL subtractor 1488 736 R0
SYMATTR InstName U12
SYMBOL adder 1504 1104 R0
SYMATTR InstName U13
SYMBOL adder 1648 1088 R0
SYMATTR InstName U14
SYMBOL adder 1648 784 R0
SYMATTR InstName U15
SYMBOL park -928 928 R0
SYMATTR InstName U16
SYMBOL gain 2048 896 R0
WINDOW 3 0 0 Left 0
SYMATTR InstName U18
SYMATTR Value K=10e-10
SYMBOL gain 2048 800 R0
WINDOW 3 0 0 Left 0
SYMATTR InstName U19
SYMATTR Value K=10e-10
SYMBOL gain 2048 992 R0
WINDOW 3 0 0 Left 0
SYMATTR InstName U20
SYMATTR Value K=10e-10
SYMBOL adder 1296 736 R0
SYMATTR InstName U7
SYMBOL adder 1296 1088 R0
SYMATTR InstName U9
SYMBOL integral 1184 752 R0
SYMATTR InstName U21
SYMBOL integral 1184 1104 R0
SYMATTR InstName U22
SYMBOL gain 1072 688 R0
WINDOW 3 0 0 Left 0
SYMATTR Value K=0.001
SYMATTR InstName U23
SYMBOL gain 1072 784 R0
WINDOW 3 0 0 Left 0
SYMATTR Value K=0.0001
SYMATTR InstName U24
SYMBOL gain 1072 1040 R0
WINDOW 3 0 0 Left 0
SYMATTR Value K=0.001
SYMATTR InstName U25
SYMBOL gain 1072 1136 R0
WINDOW 3 0 0 Left 0
SYMATTR Value K=0.0001
SYMATTR InstName U26
SYMBOL subtractor 928 688 R0
SYMATTR InstName U27
SYMBOL subtractor 928 1056 R0
SYMATTR InstName U28
SYMBOL dqtoabc 1824 912 R0
SYMATTR InstName U17
TEXT -184 1136 Left 2 !.tran 0 200m 0
TEXT -184 1168 Left 2 !.include param_inverter.txt
TEXT -1072 -240 Left 2 ;Rizki Alfiansyah\n21/478438/TK/52722
RECTANGLE Normal 2576 608 -192 -304 2
RECTANGLE Normal -1120 608 -192 -304 2
RECTANGLE Normal 2576 1264 -1120 608 2
