Version 4
SHEET 1 880 680
WIRE 400 80 304 80
WIRE 624 80 464 80
WIRE 144 112 96 112
WIRE 624 128 624 80
WIRE 656 128 624 128
WIRE 304 144 304 80
WIRE 304 144 208 144
WIRE 800 144 720 144
WIRE 656 160 624 160
WIRE 144 176 96 176
WIRE 304 192 304 144
WIRE 400 192 304 192
WIRE 512 192 464 192
WIRE 624 192 624 160
WIRE 624 192 576 192
FLAG 96 112 1
IOPIN 96 112 In
FLAG 96 176 2
IOPIN 96 176 In
FLAG 800 144 3
IOPIN 800 144 Out
SYMBOL subtractor 160 112 R0
SYMATTR InstName U1
SYMBOL gain 416 80 R0
SYMATTR InstName U2
SYMATTR Value {Kp}
SYMBOL gain 416 192 R0
SYMATTR InstName U3
SYMATTR Value {Ki}
SYMBOL integral 544 192 R0
SYMATTR InstName U4
SYMBOL adder 688 144 R0
SYMATTR InstName U5
