Version 4
SHEET 1 1272 680
WIRE 384 -32 352 -32
WIRE 528 -32 496 -32
WIRE 688 -32 592 -32
WIRE 832 -16 832 -80
WIRE 880 -16 832 -16
WIRE 352 0 352 -32
WIRE 352 0 224 0
WIRE 496 0 496 -32
WIRE 496 0 448 0
WIRE 688 0 688 -32
WIRE 736 0 688 0
WIRE 992 0 944 0
WIRE 1104 0 1056 0
WIRE 1152 0 1104 0
WIRE 880 16 800 16
WIRE 384 32 304 32
WIRE 624 32 608 32
WIRE 736 32 688 32
WIRE 496 64 496 0
WIRE 528 64 496 64
WIRE 608 64 608 32
WIRE 608 64 592 64
WIRE 304 176 304 32
WIRE 304 176 256 176
WIRE 192 288 192 240
WIRE 1104 288 1104 0
WIRE 1104 288 192 288
FLAG 144 0 0
FLAG 832 -160 0
FLAG 1152 0 theta
IOPIN 1152 0 Out
FLAG -64 176 b
IOPIN -64 176 In
FLAG -64 144 a
IOPIN -64 144 In
FLAG -64 208 c
IOPIN -64 208 In
SYMBOL voltage 240 0 R90
WINDOW 123 0 0 Left 0
WINDOW 39 0 0 Left 0
SYMATTR InstName V1
SYMATTR Value 0
SYMBOL adder 912 0 R0
SYMATTR InstName U3
SYMBOL voltage 832 -64 R180
WINDOW 123 0 0 Left 0
WINDOW 39 0 0 Left 0
SYMATTR InstName V2
SYMATTR Value 50
SYMBOL integral 1024 0 R0
SYMATTR InstName U4
SYMBOL clarke 32 176 R0
SYMATTR InstName U1
SYMBOL alphabeta-dq 192 176 R0
SYMATTR InstName U5
SYMBOL adder 768 16 R0
SYMATTR InstName U2
SYMBOL integral 656 32 R0
SYMATTR InstName U6
SYMBOL gain 544 -32 R0
WINDOW 3 0 0 Left 0
SYMATTR Value K=0.1
SYMATTR InstName U7
SYMBOL gain 544 64 R0
WINDOW 3 0 0 Left 0
SYMATTR Value K=500
SYMATTR InstName U8
SYMBOL subtractor 400 -32 R0
SYMATTR InstName U9
