Version 4
SHEET 1 2636 1284
WIRE 272 -320 160 -320
WIRE 608 -320 272 -320
WIRE 928 -320 608 -320
WIRE 272 -272 272 -320
WIRE 400 -272 272 -272
WIRE 608 -272 608 -320
WIRE 736 -272 608 -272
WIRE 928 -272 928 -320
WIRE 1056 -272 928 -272
WIRE 272 -240 272 -272
WIRE 608 -240 608 -272
WIRE 928 -240 928 -272
WIRE 400 -224 400 -272
WIRE 736 -224 736 -272
WIRE 1056 -224 1056 -272
WIRE 272 -128 272 -160
WIRE 400 -128 400 -160
WIRE 400 -128 272 -128
WIRE 608 -128 608 -160
WIRE 736 -128 736 -160
WIRE 736 -128 608 -128
WIRE 928 -128 928 -160
WIRE 1056 -128 1056 -160
WIRE 1056 -128 928 -128
WIRE -560 -80 -576 -80
WIRE -400 -80 -560 -80
WIRE -688 -64 -944 -64
WIRE 160 -64 160 -320
WIRE 160 -64 64 -64
WIRE -560 -16 -560 -80
WIRE -528 -16 -560 -16
WIRE -400 -16 -464 -16
WIRE 64 0 64 -64
WIRE 272 0 272 -128
WIRE 1184 0 272 0
WIRE 1312 0 1264 0
WIRE 1440 0 1392 0
WIRE 1744 0 1440 0
WIRE 2064 0 1744 0
WIRE 2192 0 2144 0
WIRE 1744 80 1744 0
WIRE 1824 80 1744 80
WIRE 608 112 608 -128
WIRE 1184 112 608 112
WIRE 1312 112 1264 112
WIRE 1536 112 1392 112
WIRE 1744 112 1536 112
WIRE 2064 112 1744 112
WIRE 2192 112 2192 0
WIRE 2192 112 2144 112
WIRE 2320 112 2192 112
WIRE -560 128 -576 128
WIRE -400 128 -560 128
WIRE -944 144 -944 -64
WIRE -688 144 -944 144
WIRE 1744 160 1744 112
WIRE 1824 160 1744 160
WIRE 2320 160 2320 112
WIRE -560 176 -560 128
WIRE -528 176 -560 176
WIRE -400 176 -464 176
WIRE 272 192 272 0
WIRE 400 192 272 192
WIRE 608 192 608 112
WIRE 736 192 608 192
WIRE 928 208 928 -128
WIRE 1184 208 928 208
WIRE 1312 208 1264 208
WIRE 1632 208 1392 208
WIRE 1744 208 1632 208
WIRE 2064 208 1744 208
WIRE 2192 208 2192 112
WIRE 2192 208 2144 208
WIRE 272 224 272 192
WIRE 608 224 608 192
WIRE 400 240 400 192
WIRE 736 240 736 192
WIRE 928 256 928 208
WIRE 1056 256 928 256
WIRE -944 272 -944 144
WIRE -944 272 -1040 272
WIRE 928 272 928 256
WIRE 1056 288 1056 256
WIRE 1440 320 1440 0
WIRE 1536 320 1536 112
WIRE 1632 320 1632 208
WIRE -560 336 -576 336
WIRE -400 336 -560 336
WIRE 272 336 272 304
WIRE 400 336 400 304
WIRE 400 336 272 336
WIRE 608 336 608 304
WIRE 736 336 736 304
WIRE 736 336 608 336
WIRE 1440 336 1440 320
WIRE 1536 336 1536 320
WIRE 1632 336 1632 320
WIRE 1744 336 1744 208
WIRE 1824 336 1744 336
WIRE -944 352 -944 272
WIRE -688 352 -944 352
WIRE -560 384 -560 336
WIRE -528 384 -560 384
WIRE -400 384 -464 384
WIRE 928 384 928 352
WIRE 1056 384 1056 352
WIRE 1056 384 928 384
WIRE 64 416 64 80
WIRE 272 528 272 336
WIRE 608 528 608 336
WIRE 928 528 928 384
WIRE 1440 528 1440 384
WIRE 1536 528 1536 384
WIRE 1632 528 1632 384
WIRE 912 688 656 688
WIRE 1056 688 1024 688
WIRE 1216 688 1120 688
WIRE 1024 720 1024 688
WIRE 1024 720 976 720
WIRE 1216 720 1216 688
WIRE 1264 720 1216 720
WIRE 1472 736 1328 736
WIRE 912 752 864 752
WIRE 1152 752 1136 752
WIRE 1264 752 1216 752
WIRE 1616 768 1536 768
WIRE 656 784 656 688
WIRE 1024 784 1024 720
WIRE 1056 784 1024 784
WIRE 1136 784 1136 752
WIRE 1136 784 1120 784
WIRE 1712 784 1680 784
WIRE 1472 800 1392 800
WIRE 1616 800 1568 800
WIRE 2032 800 1968 800
WIRE 2208 800 2096 800
WIRE 864 864 864 752
WIRE 864 864 816 864
WIRE 1264 864 864 864
WIRE 1408 864 1328 864
WIRE 1968 864 1968 800
WIRE 1968 864 1888 864
WIRE -320 880 -320 848
WIRE -176 880 -176 848
WIRE -32 880 -32 848
WIRE 1712 880 1712 784
WIRE 1760 880 1712 880
WIRE 656 896 656 864
WIRE 1568 896 1568 800
WIRE 2032 896 1888 896
WIRE 2208 896 2096 896
WIRE 1760 912 1712 912
WIRE 1968 928 1888 928
WIRE 1760 944 1728 944
WIRE 864 960 816 960
WIRE 1264 960 864 960
WIRE 1392 960 1392 800
WIRE 1392 960 1328 960
WIRE 1968 992 1968 928
WIRE 2032 992 1968 992
WIRE 2208 992 2096 992
WIRE 1056 1040 1008 1040
WIRE 1232 1040 1120 1040
WIRE 912 1056 656 1056
WIRE 1728 1056 1728 944
WIRE 1792 1056 1728 1056
WIRE 1232 1072 1232 1040
WIRE 1264 1072 1232 1072
WIRE 1568 1072 1568 1024
WIRE 1616 1072 1568 1072
WIRE 1008 1088 1008 1040
WIRE 1008 1088 976 1088
WIRE 1472 1088 1328 1088
WIRE 1712 1088 1712 912
WIRE 1712 1088 1680 1088
WIRE 1152 1104 1136 1104
WIRE 1264 1104 1216 1104
WIRE 1616 1104 1536 1104
WIRE 656 1120 656 1056
WIRE 864 1120 864 960
WIRE 912 1120 864 1120
WIRE 1408 1120 1408 864
WIRE 1472 1120 1408 1120
WIRE 1008 1136 1008 1088
WIRE 1056 1136 1008 1136
WIRE 1136 1136 1136 1104
WIRE 1136 1136 1120 1136
WIRE 656 1232 656 1200
FLAG 224 -224 0
FLAG 224 240 0
FLAG 560 -224 0
FLAG 880 -224 0
FLAG 880 288 0
FLAG 560 240 0
FLAG -688 -96 VoA
IOPIN -688 -96 In
FLAG -688 112 VoB
IOPIN -688 112 In
FLAG -688 320 VoC
IOPIN -688 320 In
FLAG -400 -80 Vs1
IOPIN -400 -80 Out
FLAG -400 128 Vs3
IOPIN -400 128 Out
FLAG -400 336 Vs5
IOPIN -400 336 Out
FLAG -400 -16 Vs2
IOPIN -400 -16 Out
FLAG -400 176 Vs4
IOPIN -400 176 Out
FLAG -400 384 Vs6
IOPIN -400 384 Out
FLAG 224 -176 Vs1
IOPIN 224 -176 In
FLAG 560 -176 Vs3
IOPIN 560 -176 In
FLAG 560 288 Vs4
IOPIN 560 288 In
FLAG 880 -176 Vs5
IOPIN 880 -176 In
FLAG 880 336 Vs6
IOPIN 880 336 In
FLAG 224 288 Vs2
IOPIN 224 288 In
FLAG 64 416 0
FLAG 2320 160 0
FLAG -864 768 angle
IOPIN -864 768 Out
FLAG -640 736 Ia
IOPIN -640 736 In
FLAG -640 768 Ib
IOPIN -640 768 In
FLAG -640 800 Ic
IOPIN -640 800 In
FLAG -992 736 VaGrid
IOPIN -992 736 In
FLAG -992 768 VbGrid
IOPIN -992 768 In
FLAG -992 800 VcGrid
IOPIN -992 800 In
FLAG -576 832 angle
IOPIN -576 832 In
FLAG -512 736 Id
IOPIN -512 736 Out
FLAG -512 768 Iq
IOPIN -512 768 Out
FLAG -512 800 I0
IOPIN -512 800 Out
FLAG 1536 528 0
FLAG -320 880 0
FLAG -320 768 Ia
IOPIN -320 768 Out
FLAG -176 880 0
FLAG -176 768 Ib
IOPIN -176 768 Out
FLAG -32 880 0
FLAG -32 768 Ic
IOPIN -32 768 Out
FLAG 1824 80 VaGrid
IOPIN 1824 80 Out
FLAG 1824 160 VbGrid
IOPIN 1824 160 Out
FLAG 1824 336 VcGrid
IOPIN 1824 336 Out
FLAG 656 896 0
FLAG 656 1232 0
FLAG -992 896 VaGrid
IOPIN -992 896 In
FLAG -992 928 VbGrid
IOPIN -992 928 In
FLAG -992 960 VcGrid
IOPIN -992 960 In
FLAG -928 992 angle
IOPIN -928 992 In
FLAG -864 896 Vd
IOPIN -864 896 Out
FLAG -864 928 Vq
IOPIN -864 928 Out
FLAG -864 960 V0
IOPIN -864 960 Out
FLAG 1568 1024 Vq
IOPIN 1568 1024 In
FLAG 1568 896 Vd
IOPIN 1568 896 In
FLAG 1792 1056 angle
IOPIN 1792 1056 In
FLAG 2208 800 VoA
IOPIN 2208 800 Out
FLAG 2208 896 VoB
IOPIN 2208 896 Out
FLAG 2208 992 VoC
IOPIN 2208 992 Out
FLAG 816 864 Id
IOPIN 816 864 In
FLAG 816 960 Iq
IOPIN 816 960 In
FLAG 1440 528 0
FLAG 1632 528 0
FLAG 928 528 0
FLAG 608 528 0
FLAG 272 528 0
SYMBOL voltage 64 -16 R0
WINDOW 123 0 0 Left 0
WINDOW 39 0 0 Left 0
SYMATTR InstName V1
SYMATTR Value {Vdc}
SYMBOL sw 272 -256 R0
SYMATTR InstName S1
SYMATTR Value S1
SYMBOL sw 272 208 R0
SYMATTR InstName S2
SYMATTR Value S2
SYMBOL sw 608 -256 R0
SYMATTR InstName S3
SYMATTR Value S3
SYMBOL sw 608 208 R0
SYMATTR InstName S4
SYMATTR Value S4
SYMBOL sw 928 -256 R0
SYMATTR InstName S5
SYMATTR Value S5
SYMBOL sw 928 256 R0
SYMATTR InstName S6
SYMATTR Value S6
SYMBOL diode 416 -160 R180
WINDOW 0 24 64 Left 2
WINDOW 3 24 0 Left 2
SYMATTR InstName D1
SYMBOL diode 416 304 R180
WINDOW 0 24 64 Left 2
WINDOW 3 24 0 Left 2
SYMATTR InstName D2
SYMBOL diode 752 -160 R180
WINDOW 0 24 64 Left 2
WINDOW 3 24 0 Left 2
SYMATTR InstName D3
SYMBOL diode 752 304 R180
WINDOW 0 24 64 Left 2
WINDOW 3 24 0 Left 2
SYMATTR InstName D4
SYMBOL diode 1072 -160 R180
WINDOW 0 24 64 Left 2
WINDOW 3 24 0 Left 2
SYMATTR InstName D5
SYMBOL diode 1072 352 R180
WINDOW 0 24 64 Left 2
WINDOW 3 24 0 Left 2
SYMATTR InstName D6
SYMBOL carriertriangle -1088 272 R0
SYMATTR Value Vc={Vcarrier}
SYMATTR Value2 Tc={T}
SYMATTR InstName U2
SYMBOL compare -640 -80 R0
SYMATTR InstName U3
SYMATTR Value Von=1
SYMBOL compare -640 128 R0
SYMATTR InstName U4
SYMATTR Value Von=1
SYMBOL compare -640 336 R0
SYMATTR InstName U5
SYMATTR Value Von=1
SYMBOL Digital\\inv -528 -80 R0
SYMATTR InstName A1
SYMBOL Digital\\inv -528 112 R0
SYMATTR InstName A2
SYMBOL Digital\\inv -528 320 R0
SYMATTR InstName A3
SYMBOL voltage 2160 0 R90
WINDOW 0 -32 56 VBottom 2
WINDOW 3 11 -71 VTop 2
WINDOW 123 0 0 Left 0
WINDOW 39 0 0 Left 0
SYMATTR InstName V2
SYMATTR Value SINE(0 {V} 50)
SYMBOL voltage 2160 112 R90
WINDOW 0 -32 56 VBottom 2
WINDOW 3 18 -106 VTop 2
WINDOW 123 0 0 Left 0
WINDOW 39 0 0 Left 0
SYMATTR InstName V3
SYMATTR Value SINE(0 {V} 50 0 0 -120)
SYMBOL voltage 2160 208 R90
WINDOW 0 -32 56 VBottom 2
WINDOW 3 33 -49 VTop 2
WINDOW 123 0 0 Left 0
WINDOW 39 0 0 Left 0
SYMATTR InstName V4
SYMATTR Value SINE(0 {V} 50 0 0 120)
SYMBOL PLL -928 768 R0
SYMATTR InstName U6
SYMBOL park -576 768 R0
SYMATTR InstName U8
SYMBOL ind 1296 16 R270
WINDOW 0 32 56 VTop 2
WINDOW 3 5 57 VBottom 2
SYMATTR InstName L4
SYMATTR Value {Lf}
SYMBOL ind 1296 128 R270
WINDOW 0 32 56 VTop 2
WINDOW 3 7 53 VBottom 2
SYMATTR InstName L5
SYMATTR Value {Lf}
SYMBOL ind 1296 224 R270
WINDOW 0 32 56 VTop 2
WINDOW 3 -28 42 VBottom 2
SYMATTR InstName L6
SYMATTR Value {Lf}
SYMBOL cap 1424 320 R0
SYMATTR InstName C1
SYMATTR Value {Cf}
SYMBOL cap 1520 320 R0
SYMATTR InstName C2
SYMATTR Value {Cf}
SYMBOL cap 1616 320 R0
SYMATTR InstName C3
SYMATTR Value {Cf}
SYMBOL res 1280 -16 R90
WINDOW 0 0 56 VBottom 2
WINDOW 3 32 56 VTop 2
SYMATTR InstName R1
SYMATTR Value 5
SYMBOL res 1280 96 R90
WINDOW 0 0 56 VBottom 2
WINDOW 3 32 56 VTop 2
SYMATTR InstName R2
SYMATTR Value 5
SYMBOL res 1280 192 R90
WINDOW 0 0 56 VBottom 2
WINDOW 3 32 56 VTop 2
SYMATTR InstName R3
SYMATTR Value 5
SYMBOL bv -320 752 R0
SYMATTR InstName B1
SYMATTR Value V=I(L4)
SYMBOL bv -176 752 R0
SYMATTR InstName B2
SYMATTR Value V=I(L5)
SYMBOL bv -32 752 R0
SYMATTR InstName B3
SYMATTR Value V=I(L6)
SYMBOL voltage 656 768 R0
WINDOW 123 0 0 Left 0
WINDOW 39 0 0 Left 0
SYMATTR InstName V5
SYMATTR Value 3k
SYMBOL voltage 656 1104 R0
WINDOW 123 0 0 Left 0
WINDOW 39 0 0 Left 0
SYMATTR InstName V6
SYMATTR Value 0
SYMBOL gain 1280 864 R0
WINDOW 3 0 0 Left 0
SYMATTR Value K=0.001
SYMATTR InstName U10
SYMBOL gain 1280 960 R0
WINDOW 3 0 0 Left 0
SYMATTR Value K=0.001
SYMATTR InstName U11
SYMBOL subtractor 1488 736 R0
SYMATTR InstName U12
SYMBOL adder 1504 1104 R0
SYMATTR InstName U13
SYMBOL adder 1648 1088 R0
SYMATTR InstName U14
SYMBOL adder 1648 784 R0
SYMATTR InstName U15
SYMBOL park -928 928 R0
SYMATTR InstName U16
SYMBOL gain 2048 896 R0
WINDOW 3 0 0 Left 0
SYMATTR Value K=10e-10
SYMATTR InstName U18
SYMBOL gain 2048 800 R0
WINDOW 3 0 0 Left 0
SYMATTR Value K=10e-10
SYMATTR InstName U19
SYMBOL gain 2048 992 R0
WINDOW 3 0 0 Left 0
SYMATTR Value K=10e-10
SYMATTR InstName U20
SYMBOL adder 1296 736 R0
SYMATTR InstName U7
SYMBOL adder 1296 1088 R0
SYMATTR InstName U9
SYMBOL integral 1184 752 R0
SYMATTR InstName U21
SYMBOL integral 1184 1104 R0
SYMATTR InstName U22
SYMBOL gain 1072 688 R0
WINDOW 3 0 0 Left 0
SYMATTR Value K=0.001
SYMATTR InstName U23
SYMBOL gain 1072 784 R0
WINDOW 3 0 0 Left 0
SYMATTR Value K=0.0001
SYMATTR InstName U24
SYMBOL gain 1072 1040 R0
WINDOW 3 0 0 Left 0
SYMATTR Value K=0.001
SYMATTR InstName U25
SYMBOL gain 1072 1136 R0
WINDOW 3 0 0 Left 0
SYMATTR Value K=0.0001
SYMATTR InstName U26
SYMBOL subtractor 928 688 R0
SYMATTR InstName U27
SYMBOL subtractor 928 1056 R0
SYMATTR InstName U28
SYMBOL dqtoabc 1824 912 R0
SYMATTR InstName U17
TEXT -184 1136 Left 2 !.tran 0 200m 0
TEXT -184 1168 Left 2 !.include PVGridInverter.txt
